/*--------------------------------*- C++ -*----------------------------------*\
| =========                 |                                                 |
| \\      /  F ield         | OpenFOAM: The Open Source CFD Toolbox           |
|  \\    /   O peration     | Version:  2.2.x                                 |
|   \\  /    A nd           | Web:      www.OpenFOAM.org                      |
|    \\/     M anipulation  |                                                 |
\*---------------------------------------------------------------------------*/
FoamFile
{
    version     2.2;
    format      ascii;
    class       dictionary;
    location    "system";
    object      fvSchemes;
}
// * * * * * * * * * * * * * * * * * * * * * * * * * * * * * * * * * * * * * //

ddtSchemes
{
    default         bounded Euler;
}

gradSchemes
{
    default         Gauss linear; 
}

divSchemes
{
    div(phi,U)      	bounded Gauss limitedLinearV 1;
    div(phi,epsilon) 	bounded Gauss limitedLinear 1;
    div(phi,k)      	bounded Gauss limitedLinear 1;
    div(phiU,p)		bounded Gauss limitedLinear 1;

    div(phi,H)      	bounded Gauss limitedLinear 1;
    div(phi,Z)    	bounded Gauss limitedLimitedLinear 1 0 1;
    div(phi,Zvar)      	bounded Gauss limitedLimitedLinear 1 0 0.25;

    div(((rho*nuEff)*dev2(T(grad(U))))) Gauss linear;
}

laplacianSchemes
{
    default  Gauss linear corrected;
}

interpolationSchemes
{
    default         linear;
}

snGradSchemes
{
    default         corrected;
}

fluxRequired
{
    default         no;
    p               ;
}


// ************************************************************************* //
