/*--------------------------------*- C++ -*----------------------------------*\
| =========                 |                                                 |
| \\      /  F ield         | OpenFOAM: The Open Source CFD Toolbox           |
|  \\    /   O peration     | Version:  2.2.0                                 |
|   \\  /    A nd           | Web:      www.OpenFOAM.org                      |
|    \\/     M anipulation  |                                                 |
\*---------------------------------------------------------------------------*/
FoamFile
{
    version     2.2;
    format      ascii;
    class       dictionary;
    location    "system";
    object      fvSolution;
}
// * * * * * * * * * * * * * * * * * * * * * * * * * * * * * * * * * * * * * //

solvers
{
    rho
    {
        solver          PCG;
        preconditioner  DIC;
        tolerance       1e-6;
        relTol          0.1;
    }

    rhoFinal
    {
        $rho;
        tolerance       1e-6;
        relTol          0;
    }

    p
    {
        solver                GAMG;
        tolerance             1e-7;
        relTol                0.01;
        smoother              GaussSeidel;
        cacheAgglomeration    true;
        nCellsInCoarsestLevel 20;
        agglomerator          faceAreaPair;
        mergeLevels           1;
    }

    pFinal
    {
        solver                GAMG;
        tolerance             1e-6;
        relTol                0;
        smoother              GaussSeidel;
        cacheAgglomeration    true;
        nCellsInCoarsestLevel 20;
        agglomerator          faceAreaPair;
        mergeLevels           1;
    }

    U
    {
        solver          PBiCG;
        preconditioner  DILU;
        tolerance       1e-9;
        relTol          0.1;
	minIter		1;
    }

    UFinal
    {
        solver          PBiCG;
        preconditioner  DILU;
        tolerance       1e-9;
        relTol          0;
	minIter		1;
    }

    "(k|epsilon|H|Z|Zvar)"
    {
        solver          PBiCG;
        preconditioner  DILU;
        tolerance       1e-9;
        relTol          0.1;
	minIter		1;
    }

    "(k|epsilon|H|Z|Zvar)Final"
    {
        $U;
        tolerance       1e-9;
        relTol          0;
	minIter		1;
    }
}

PIMPLE
{
    momentumPredictor          no;
    transonic                  no;
    consistent                yes;

    // For regular cases
    nOuterCorrectors            1;
    nCorrectors                 2;
    nNonOrthogonalCorrectors    0;

    // For very unstable cases, you may try these options
    // nOuterCorrectors         50;
    // nCorrectors               1;
    // nNonOrthogonalCorrectors  0;

    pMaxFactor  1.2;
    pMinFactor  0.8;

    residualControl
    {
        "(U|k|epsilon)"
        {
            relTol          0;
            tolerance       0.0001;
        }

       "(H|Z|Zvar)"
       {
            relTol          0;
            tolerance       0.0001;
       }
    }

    // For very high speeds, better to switch off
    turbOnFinalIterOnly true;
}

// ************************************************************************* //
