/*--------------------------------*- C++ -*----------------------------------*\
| =========                 |                                                 |
| \\      /  F ield         | OpenFOAM: The Open Source CFD Toolbox           |
|  \\    /   O peration     | Version:  2.2.x                                 |
|   \\  /    A nd           | Web:      www.OpenFOAM.org                      |
|    \\/     M anipulation  |                                                 |
\*---------------------------------------------------------------------------*/
FoamFile
{
    version     2.2;
    format      ascii;
    class       dictionary;
    location    "constant/polyMesh";
    object      blockMeshDict;
}
// * * * * * * * * * * * * * * * * * * * * * * * * * * * * * * * * * * * * * //                                        
                                        
convertToMeters 1;                  
                                        
vertices                                
(                                       
   (0 0 0)   					// 0
   (0.00228782042306 0  0.00009988839688)   	// 1
   (0.00228782042306 0 -0.00009988839688)   	// 2

   (0 0.93 0)   				// 3
   (0.00228782042306 0.93  0.00009988839688)   	// 4
   (0.00228782042306 0.93 -0.00009988839688)   	// 5

   (0 -0.07 0)  	 			// 6
   (0.00228782042306 -0.07  0.00009988839688)   // 7
   (0.00228782042306 -0.07 -0.00009988839688)   // 8

   (0.00316698285926 0     0.00013827345781)   	// 9
   (0.00316698285926 0    -0.00013827345781)  	// 10
   (0.00316698285926 0.93  0.00013827345781)   	// 11
   (0.00316698285926 0.93 -0.00013827345781)   	// 12

   (0.03996192886327 0.00  0.00174477549461)   	// 13
   (0.03996192886327 0.00 -0.00174477549461)    // 14
   (0.03996192886327 0.93  0.00174477549461)  	// 15
   (0.03996192886327 0.93 -0.00174477549461)   	// 16

   (0.00316698285926 -0.07  0.00013827345781)   // 17
   (0.00316698285926 -0.07 -0.00013827345781)   // 18
   (0.03996192886327 -0.07  0.00174477549461)   // 19
   (0.03996192886327 -0.07 -0.00174477549461)   // 20

// Erster Outlet 3 Teile
   (0.04995238610289 -0.07  0.00218096827778)   // 21
   (0.04995238610289 -0.07 -0.00218096827778)   // 22
   (0.04995238610289  0     0.00218096827778)	// 23
   (0.04995238610289  0    -0.00218096827778)	// 24 

   (0.04995238610289 0.43  0.00218096827778)   	// 25
   (0.04995238610289 0.43 -0.00218096827778)    // 26

   (0.03996192886327 0.93  0.00174477549461)  	// 15
   (0.03996192886327 0.93 -0.00174477549461)   	// 16  
   (0.04995238610289 0.93  0.00218096827778)	// 29
   (0.04995238610289 0.93 -0.00218096827778)	// 30

// Zwischenstück
   (0.09990479718198 -0.07  0.00436193764605)   // 31
   (0.09990479718198 -0.07 -0.00436193764605)   // 32  

   (0.09990479718198 -0.0  0.00436193764605)   	// 33
   (0.09990479718198 -0.0 -0.00436193764605)    // 34

   (0.09990479718198 0.43  0.00436193764605)   	// 35
   (0.09990479718198 0.43 -0.00436193764605)    // 36

// Zweiter Outlet 
   (0.1098952793978 -0.07  0.0047981315197)   	// 37
   (0.1098952793978 -0.07 -0.0047981315197)     // 38  

   (0.1098952793978 -0.0  0.0047981315197)   	// 39
   (0.1098952793978 -0.0 -0.0047981315197)    	// 40
  
   (0.1098952793978 0.43  0.0047981315197)   	// 41
   (0.1098952793978 0.43 -0.0047981315197)      // 42  
 
   (0.09990479718198 0.93  0.00436193764605)   	// 43
   (0.09990479718198 0.93 -0.00436193764605)   	// 44   
   (0.1098952793978 0.93  0.0047981315197)   	// 45
   (0.1098952793978 0.93 -0.0047981315197)    	// 46  

// Zwischenstück
   (0.1598477154531 -0.07  0.00697910197845)   	// 47
   (0.1598477154531 -0.07 -0.00697910197845)    // 48  

   (0.1598477154531 -0.0  0.00697910197845)   	// 49
   (0.1598477154531 -0.0 -0.00697910197845)     // 50

   (0.1598477154531 0.43  0.00697910197845)   	// 51
   (0.1598477154531 0.43 -0.00697910197845)     // 52

 
 // Dritter Outlet 
   (0.16983819766892 -0.07  0.00741529585211)   // 53
   (0.16983819766892 -0.07 -0.00741529585211)   // 54  

   (0.16983819766892 -0.0  0.00741529585211)   	// 55
   (0.16983819766892 -0.0 -0.00741529585211)    // 56
  
   (0.16983819766892 0.43  0.00741529585211)   	// 57
   (0.16983819766892 0.43 -0.00741529585211)    // 58  
 
   (0.1598477154531 0.93  0.00697910197845)  	// 59
   (0.1598477154531 0.93 -0.00697910197845) 	// 60   
   (0.16983819766892 0.93  0.00741529585211)   	// 61
   (0.16983819766892 0.93 -0.00741529585211)   	// 62   
   
// Zwischenstück
   (0.17982867988473 -0.07  0.00785148972576)   // 63
   (0.17982867988473 -0.07 -0.00785148972576)   // 64  

   (0.17982867988473 -0.0  0.00785148972576)   	// 65
   (0.17982867988473 -0.0 -0.00785148972576)    // 66

   (0.17982867988473 0.93  0.00785148972576)   	// 77
   (0.17982867988473 0.93 -0.00785148972576)    // 78

);

blocks
( 				  	
	hex (0 1 2 0 3 4 5 3)         (3  1  120)   simpleGrading (1 1 15)
	hex (6 7 8 6 0 1 2 0)         (3  1  40)    simpleGrading (1 1 0.6)
	hex (1 9 10 2 4 11 12 5)      (1  1  120)   simpleGrading (1 1 15)
	hex (9 65 66 10 11 67 68 12)  (60 1 120)   simpleGrading (4 1 15)
	hex (17 63 64 18 9 65 66 10)  (60 1 40)    simpleGrading (4 1 0.6)
);
                                     
edges                                
(                                    
);                                   
                                     
patches                              
(                                    
    patch inletfuel                  
    (                                
        (6 7 8 6)                    
    )                                
                                     
    patch inletair                   
    (                                
        (17 63 64 18)
    )                                
                     
                
    patch outlet                     
    (
	(3 4 5 3)
	(4 11 12 5)
	(11 67 68 12)
    )                                
                                     
    empty axis                       
    (                                
        (0 3 3 0)                    
        (0 6 6 0)                    
    )                                
    
                                 
    wall sidewall
    (                                    
	(63 64 66 65)
	(65 66 68 67)
    )                                
                                     
    wall burnerwall                  
    (                                
        (7 1 2 8)                    
        (1 9 10 2)                 
        (9 10 18 17)                   
    )                                
                                     
    wedge front                      
    (
	(3 4 1 0)
	(0 1 7 6)

	(4 11 9 1)

	(17 63 65 9)
	(9 65 67 11)
    )                                
                                     
    wedge back                       
    (
	(3 5 2 0)
	(0 2 8 6)
	
	(5 12 10 2)

	(18 64 66 10)
	(10 66 68 12)
    )                             
                                     
);                                   
                                     
mergePatchPairs                      
(                                    
);                                   
					    
